8
* (null), Energy   -1000.0000000
C     0.036357    0.119722    0.000000   -0.277100   -1.477868    0.000000
C    -1.325254   -0.534251    0.000000    0.059722    0.103460    0.000000
O     0.221928    1.300547   -0.000000    0.166224    0.927615   -0.000000
O     1.080057   -0.734064   -0.000000    0.040834    0.087753    0.000000
H    -2.099135    0.241113   -0.000000   -0.286591   -0.317327   -0.000000
H    -1.450651   -1.171483    0.890005    0.139986    0.155471    0.070455
H    -1.450651   -1.171483   -0.890005    0.139986    0.155471   -0.070455
H     0.767638   -1.646181   -0.000000   -0.689613    0.267440    0.000000
8
* Frequency(19) 1938.2456
C     0.004866   -0.048230    0.000000   -0.277100   -1.477868    0.000000
C    -1.318467   -0.522493    0.000000    0.059722    0.103460    0.000000
O     0.240819    1.405965   -0.000000    0.166224    0.927615   -0.000000
O     1.084698   -0.724091   -0.000000    0.040834    0.087753    0.000000
H    -2.131704    0.205050   -0.000000   -0.286591   -0.317327   -0.000000
H    -1.434742   -1.153814    0.898012    0.139986    0.155471    0.070455
H    -1.434742   -1.153814   -0.898012    0.139986    0.155471   -0.070455
H     0.689267   -1.615788   -0.000000   -0.689613    0.267440    0.000000
8
* Frequency(19) 1938.2456
C    -0.023213   -0.197982    0.000000   -0.277100   -1.477868    0.000000
C    -1.312415   -0.512010    0.000000    0.059722    0.103460    0.000000
O     0.257662    1.499960   -0.000000    0.166224    0.927615   -0.000000
O     1.088835   -0.715199   -0.000000    0.040834    0.087753    0.000000
H    -2.160744    0.172896   -0.000000   -0.286591   -0.317327   -0.000000
H    -1.420558   -1.138060    0.905151    0.139986    0.155471    0.070455
H    -1.420557   -1.138060   -0.905151    0.139986    0.155471   -0.070455
H     0.619389   -1.588688   -0.000000   -0.689613    0.267440    0.000000
8
* Frequency(19) 1938.2456
C    -0.044836   -0.313305    0.000000   -0.277100   -1.477868    0.000000
C    -1.307755   -0.503936    0.000000    0.059722    0.103460    0.000000
O     0.270633    1.572345   -0.000000    0.166224    0.927615   -0.000000
O     1.092022   -0.708352   -0.000000    0.040834    0.087753    0.000000
H    -2.183108    0.148133   -0.000000   -0.286591   -0.317327   -0.000000
H    -1.409634   -1.125928    0.910649    0.139986    0.155471    0.070455
H    -1.409634   -1.125928   -0.910649    0.139986    0.155471   -0.070455
H     0.565576   -1.567819   -0.000000   -0.689613    0.267440    0.000000
8
* Frequency(19) 1938.2456
C    -0.057661   -0.381704    0.000000   -0.277100   -1.477868    0.000000
C    -1.304991   -0.499148    0.000000    0.059722    0.103460    0.000000
O     0.278327    1.615277   -0.000000    0.166224    0.927615   -0.000000
O     1.093912   -0.704290   -0.000000    0.040834    0.087753    0.000000
H    -2.196372    0.133447   -0.000000   -0.286591   -0.317327   -0.000000
H    -1.403155   -1.118733    0.913910    0.139986    0.155471    0.070455
H    -1.403155   -1.118733   -0.913910    0.139986    0.155471   -0.070455
H     0.533659   -1.555441   -0.000000   -0.689613    0.267440    0.000000
8
* Frequency(19) 1938.2456
C    -0.060297   -0.395765    0.000000   -0.277100   -1.477868    0.000000
C    -1.304423   -0.498164    0.000000    0.059722    0.103460    0.000000
O     0.279908    1.624103   -0.000000    0.166224    0.927615   -0.000000
O     1.094300   -0.703455   -0.000000    0.040834    0.087753    0.000000
H    -2.199099    0.130428   -0.000000   -0.286591   -0.317327   -0.000000
H    -1.401823   -1.117254    0.914580    0.139986    0.155471    0.070455
H    -1.401823   -1.117254   -0.914580    0.139986    0.155471   -0.070455
H     0.527098   -1.552897   -0.000000   -0.689613    0.267440    0.000000
8
* Frequency(19) 1938.2456
C    -0.052460   -0.353965    0.000000   -0.277100   -1.477868    0.000000
C    -1.306112   -0.501090    0.000000    0.059722    0.103460    0.000000
O     0.275207    1.597866   -0.000000    0.166224    0.927615   -0.000000
O     1.093145   -0.705937   -0.000000    0.040834    0.087753    0.000000
H    -2.190993    0.139403   -0.000000   -0.286591   -0.317327   -0.000000
H    -1.405783   -1.121651    0.912587    0.139986    0.155471    0.070455
H    -1.405782   -1.121651   -0.912587    0.139986    0.155471   -0.070455
H     0.546603   -1.560461   -0.000000   -0.689613    0.267440    0.000000
8
* Frequency(19) 1938.2456
C    -0.034997   -0.260834    0.000000   -0.277100   -1.477868    0.000000
C    -1.309875   -0.507610    0.000000    0.059722    0.103460    0.000000
O     0.264732    1.539411   -0.000000    0.166224    0.927615   -0.000000
O     1.090572   -0.711467   -0.000000    0.040834    0.087753    0.000000
H    -2.172933    0.159400   -0.000000   -0.286591   -0.317327   -0.000000
H    -1.414604   -1.131448    0.908147    0.139986    0.155471    0.070455
H    -1.414604   -1.131448   -0.908147    0.139986    0.155471   -0.070455
H     0.590060   -1.577314   -0.000000   -0.689613    0.267440    0.000000
8
* Frequency(19) 1938.2456
C    -0.009803   -0.126464    0.000000   -0.277100   -1.477868    0.000000
C    -1.315306   -0.517016    0.000000    0.059722    0.103460    0.000000
O     0.249618    1.455070   -0.000000    0.166224    0.927615   -0.000000
O     1.086859   -0.719446   -0.000000    0.040834    0.087753    0.000000
H    -2.146875    0.188252   -0.000000   -0.286591   -0.317327   -0.000000
H    -1.427332   -1.145584    0.901742    0.139986    0.155471    0.070455
H    -1.427332   -1.145584   -0.901741    0.139986    0.155471   -0.070455
H     0.652761   -1.601631   -0.000000   -0.689613    0.267440    0.000000
8
* Frequency(19) 1938.2456
C     0.020394    0.034585    0.000000   -0.277100   -1.477868    0.000000
C    -1.321814   -0.528291    0.000000    0.059722    0.103460    0.000000
O     0.231504    1.353985   -0.000000    0.166224    0.927615   -0.000000
O     1.082410   -0.729009   -0.000000    0.040834    0.087753    0.000000
H    -2.115644    0.222832   -0.000000   -0.286591   -0.317327   -0.000000
H    -1.442587   -1.162526    0.894064    0.139986    0.155471    0.070455
H    -1.442586   -1.162526   -0.894064    0.139986    0.155471   -0.070455
H     0.727911   -1.630774   -0.000000   -0.689613    0.267440    0.000000
8
* Frequency(19) 1938.2456
C     0.052320    0.204859    0.000000   -0.277100   -1.477868    0.000000
C    -1.328695   -0.540211    0.000000    0.059722    0.103460    0.000000
O     0.212352    1.247109   -0.000000    0.166224    0.927615   -0.000000
O     1.077705   -0.739119   -0.000000    0.040834    0.087753    0.000000
H    -2.082625    0.259393   -0.000000   -0.286591   -0.317327   -0.000000
H    -1.458715   -1.180439    0.885946    0.139986    0.155471    0.070455
H    -1.458715   -1.180439   -0.885946    0.139986    0.155471   -0.070455
H     0.807365   -1.661588   -0.000000   -0.689613    0.267440    0.000000
8
* Frequency(19) 1938.2456
C     0.082517    0.365908    0.000000   -0.277100   -1.477868    0.000000
C    -1.335203   -0.551485    0.000000    0.059722    0.103460    0.000000
O     0.194238    1.146023   -0.000000    0.166224    0.927615   -0.000000
O     1.073255   -0.748682   -0.000000    0.040834    0.087753    0.000000
H    -2.051394    0.293973   -0.000000   -0.286591   -0.317327   -0.000000
H    -1.473970   -1.197381    0.878269    0.139986    0.155471    0.070455
H    -1.473970   -1.197381   -0.878269    0.139986    0.155471   -0.070455
H     0.882515   -1.690732   -0.000000   -0.689613    0.267440    0.000000
8
* Frequency(19) 1938.2456
C     0.107711    0.500278    0.000000   -0.277100   -1.477868    0.000000
C    -1.340633   -0.560892    0.000000    0.059722    0.103460    0.000000
O     0.179125    1.061683   -0.000000    0.166224    0.927615   -0.000000
O     1.069542   -0.756661   -0.000000    0.040834    0.087753    0.000000
H    -2.025336    0.322825   -0.000000   -0.286591   -0.317327   -0.000000
H    -1.486698   -1.211517    0.871863    0.139986    0.155471    0.070455
H    -1.486698   -1.211517   -0.871863    0.139986    0.155471   -0.070455
H     0.945216   -1.715048   -0.000000   -0.689613    0.267440    0.000000
8
* Frequency(19) 1938.2456
C     0.125173    0.593409    0.000000   -0.277100   -1.477868    0.000000
C    -1.344396   -0.567412    0.000000    0.059722    0.103460    0.000000
O     0.168650    1.003227   -0.000000    0.166224    0.927615   -0.000000
O     1.066969   -0.762191   -0.000000    0.040834    0.087753    0.000000
H    -2.007276    0.342822   -0.000000   -0.286591   -0.317327   -0.000000
H    -1.495519   -1.221314    0.867423    0.139986    0.155471    0.070455
H    -1.495519   -1.221314   -0.867423    0.139986    0.155471   -0.070455
H     0.988673   -1.731901   -0.000000   -0.689613    0.267440    0.000000
8
* Frequency(19) 1938.2456
C     0.133011    0.635209    0.000000   -0.277100   -1.477868    0.000000
C    -1.346085   -0.570338    0.000000    0.059722    0.103460    0.000000
O     0.163948    0.976990   -0.000000    0.166224    0.927615   -0.000000
O     1.065814   -0.764673   -0.000000    0.040834    0.087753    0.000000
H    -1.999170    0.351798   -0.000000   -0.286591   -0.317327   -0.000000
H    -1.499479   -1.225712    0.865430    0.139986    0.155471    0.070455
H    -1.499478   -1.225712   -0.865430    0.139986    0.155471   -0.070455
H     1.008178   -1.739466   -0.000000   -0.689613    0.267440    0.000000
8
* Frequency(19) 1938.2456
C     0.130374    0.621148    0.000000   -0.277100   -1.477868    0.000000
C    -1.345517   -0.569354    0.000000    0.059722    0.103460    0.000000
O     0.165530    0.985816   -0.000000    0.166224    0.927615   -0.000000
O     1.066202   -0.763838   -0.000000    0.040834    0.087753    0.000000
H    -2.001897    0.348778   -0.000000   -0.286591   -0.317327   -0.000000
H    -1.498147   -1.224232    0.866100    0.139986    0.155471    0.070455
H    -1.498146   -1.224232   -0.866100    0.139986    0.155471   -0.070455
H     1.001617   -1.736921   -0.000000   -0.689613    0.267440    0.000000
8
* Frequency(19) 1938.2456
C     0.117550    0.552750    0.000000   -0.277100   -1.477868    0.000000
C    -1.342753   -0.564565    0.000000    0.059722    0.103460    0.000000
O     0.173223    1.028748   -0.000000    0.166224    0.927615   -0.000000
O     1.068092   -0.759776   -0.000000    0.040834    0.087753    0.000000
H    -2.015161    0.334092   -0.000000   -0.286591   -0.317327   -0.000000
H    -1.491668   -1.217037    0.869361    0.139986    0.155471    0.070455
H    -1.491668   -1.217037   -0.869361    0.139986    0.155471   -0.070455
H     0.969700   -1.724543   -0.000000   -0.689613    0.267440    0.000000
8
* Frequency(19) 1938.2456
C     0.095926    0.437426    0.000000   -0.277100   -1.477868    0.000000
C    -1.338093   -0.556492    0.000000    0.059722    0.103460    0.000000
O     0.186194    1.101133   -0.000000    0.166224    0.927615   -0.000000
O     1.071279   -0.752929   -0.000000    0.040834    0.087753    0.000000
H    -2.037525    0.309330   -0.000000   -0.286591   -0.317327   -0.000000
H    -1.480744   -1.204905    0.874859    0.139986    0.155471    0.070455
H    -1.480744   -1.204905   -0.874859    0.139986    0.155471   -0.070455
H     0.915887   -1.703674   -0.000000   -0.689613    0.267440    0.000000
8
* Frequency(19) 1938.2456
C     0.067848    0.287674    0.000000   -0.277100   -1.477868    0.000000
C    -1.332041   -0.546009    0.000000    0.059722    0.103460    0.000000
O     0.203038    1.195128   -0.000000    0.166224    0.927615   -0.000000
O     1.075417   -0.744037   -0.000000    0.040834    0.087753    0.000000
H    -2.066565    0.277175   -0.000000   -0.286591   -0.317327   -0.000000
H    -1.466560   -1.189151    0.881998    0.139986    0.155471    0.070455
H    -1.466559   -1.189151   -0.881998    0.139986    0.155471   -0.070455
H     0.846009   -1.676574   -0.000000   -0.689613    0.267440    0.000000
8
* Frequency(19) 1938.2456
C     0.036357    0.119722    0.000000   -0.277100   -1.477868    0.000000
C    -1.325254   -0.534251    0.000000    0.059722    0.103460    0.000000
O     0.221928    1.300547   -0.000000    0.166224    0.927615   -0.000000
O     1.080057   -0.734064   -0.000000    0.040834    0.087753    0.000000
H    -2.099135    0.241113   -0.000000   -0.286591   -0.317327   -0.000000
H    -1.450651   -1.171483    0.890005    0.139986    0.155471    0.070455
H    -1.450651   -1.171483   -0.890005    0.139986    0.155471   -0.070455
H     0.767638   -1.646181   -0.000000   -0.689613    0.267440    0.000000
