8
* (null), Energy   -1000.0000000
C     0.036357    0.119722    0.000000   -0.389500    0.089072    0.000000
C    -1.325254   -0.534251    0.000000   -0.089108   -0.128504   -0.000000
O     0.221928    1.300547   -0.000000    0.051645   -0.026962   -0.000000
O     1.080057   -0.734064   -0.000000    0.231863   -0.062562   -0.000000
H    -2.099135    0.241113   -0.000000    0.709286    0.658553    0.000000
H    -1.450651   -1.171483    0.890005    0.698400    0.465789    0.501420
H    -1.450651   -1.171483   -0.890005    0.698400    0.465789   -0.501420
H     0.767638   -1.646181   -0.000000   -0.902985    0.300644    0.000000
8
* Frequency(15) 1321.4048
C    -0.007908    0.129845    0.000000   -0.389500    0.089072    0.000000
C    -1.335381   -0.548855    0.000000   -0.089108   -0.128504   -0.000000
O     0.227797    1.297483   -0.000000    0.051645   -0.026962   -0.000000
O     1.106407   -0.741174   -0.000000    0.231863   -0.062562   -0.000000
H    -2.018528    0.315954   -0.000000    0.709286    0.658553    0.000000
H    -1.371281   -1.118548    0.946989    0.698400    0.465789    0.501420
H    -1.371281   -1.118548   -0.946989    0.698400    0.465789   -0.501420
H     0.665019   -1.612015   -0.000000   -0.902985    0.300644    0.000000
8
* Frequency(15) 1321.4048
C    -0.047376    0.138870    0.000000   -0.389500    0.089072    0.000000
C    -1.344410   -0.561876    0.000000   -0.089108   -0.128504   -0.000000
O     0.233030    1.294751   -0.000000    0.051645   -0.026962   -0.000000
O     1.129902   -0.747513   -0.000000    0.231863   -0.062562   -0.000000
H    -1.946656    0.382685   -0.000000    0.709286    0.658553    0.000000
H    -1.300513   -1.071350    0.997798    0.698400    0.465789    0.501420
H    -1.300513   -1.071350   -0.997797    0.698400    0.465789   -0.501420
H     0.573519   -1.581550   -0.000000   -0.902985    0.300644    0.000000
8
* Frequency(15) 1321.4048
C    -0.077770    0.145821    0.000000   -0.389500    0.089072    0.000000
C    -1.351363   -0.571904    0.000000   -0.089108   -0.128504   -0.000000
O     0.237060    1.292647   -0.000000    0.051645   -0.026962   -0.000000
O     1.147995   -0.752395   -0.000000    0.231863   -0.062562   -0.000000
H    -1.891308    0.434074   -0.000000    0.709286    0.658553    0.000000
H    -1.246014   -1.035003    1.036925    0.698400    0.465789    0.501420
H    -1.246014   -1.035003   -1.036925    0.698400    0.465789   -0.501420
H     0.503056   -1.558090   -0.000000   -0.902985    0.300644    0.000000
8
* Frequency(15) 1321.4048
C    -0.095796    0.149943    0.000000   -0.389500    0.089072    0.000000
C    -1.355488   -0.577851    0.000000   -0.089108   -0.128504   -0.000000
O     0.239451    1.291399   -0.000000    0.051645   -0.026962   -0.000000
O     1.158726   -0.755290   -0.000000    0.231863   -0.062562   -0.000000
H    -1.858481    0.464553   -0.000000    0.709286    0.658553    0.000000
H    -1.213691   -1.013445    1.060132    0.698400    0.465789    0.501420
H    -1.213691   -1.013445   -1.060132    0.698400    0.465789   -0.501420
H     0.461264   -1.544176   -0.000000   -0.902985    0.300644    0.000000
8
* Frequency(15) 1321.4048
C    -0.099502    0.150791    0.000000   -0.389500    0.089072    0.000000
C    -1.356335   -0.579074    0.000000   -0.089108   -0.128504   -0.000000
O     0.239942    1.291142   -0.000000    0.051645   -0.026962   -0.000000
O     1.160932   -0.755886   -0.000000    0.231863   -0.062562   -0.000000
H    -1.851732    0.470819   -0.000000    0.709286    0.658553    0.000000
H    -1.207046   -1.009013    1.064903    0.698400    0.465789    0.501420
H    -1.207046   -1.009013   -1.064903    0.698400    0.465789   -0.501420
H     0.452673   -1.541315   -0.000000   -0.902985    0.300644    0.000000
8
* Frequency(15) 1321.4048
C    -0.088486    0.148272    0.000000   -0.389500    0.089072    0.000000
C    -1.353815   -0.575439    0.000000   -0.089108   -0.128504   -0.000000
O     0.238481    1.291905   -0.000000    0.051645   -0.026962   -0.000000
O     1.154374   -0.754116   -0.000000    0.231863   -0.062562   -0.000000
H    -1.871794    0.452193   -0.000000    0.709286    0.658553    0.000000
H    -1.226799   -1.022188    1.050721    0.698400    0.465789    0.501420
H    -1.226799   -1.022188   -1.050720    0.698400    0.465789   -0.501420
H     0.478213   -1.549819   -0.000000   -0.902985    0.300644    0.000000
8
* Frequency(15) 1321.4048
C    -0.063941    0.142658    0.000000   -0.389500    0.089072    0.000000
C    -1.348200   -0.567341    0.000000   -0.089108   -0.128504   -0.000000
O     0.235227    1.293604   -0.000000    0.051645   -0.026962   -0.000000
O     1.139762   -0.750174   -0.000000    0.231863   -0.062562   -0.000000
H    -1.916491    0.410692   -0.000000    0.709286    0.658553    0.000000
H    -1.270811   -1.051540    1.019122    0.698400    0.465789    0.501420
H    -1.270810   -1.051540   -1.019122    0.698400    0.465789   -0.501420
H     0.535116   -1.568764   -0.000000   -0.902985    0.300644    0.000000
8
* Frequency(15) 1321.4048
C    -0.028527    0.134560    0.000000   -0.389500    0.089072    0.000000
C    -1.340098   -0.555657    0.000000   -0.089108   -0.128504   -0.000000
O     0.230531    1.296055   -0.000000    0.051645   -0.026962   -0.000000
O     1.118681   -0.744486   -0.000000    0.231863   -0.062562   -0.000000
H    -1.980981    0.350815   -0.000000    0.709286    0.658553    0.000000
H    -1.334310   -1.093891    0.973532    0.698400    0.465789    0.501420
H    -1.334310   -1.093891   -0.973532    0.698400    0.465789   -0.501420
H     0.617217   -1.596099   -0.000000   -0.902985    0.300644    0.000000
8
* Frequency(15) 1321.4048
C     0.013919    0.124853    0.000000   -0.389500    0.089072    0.000000
C    -1.330387   -0.541654    0.000000   -0.089108   -0.128504   -0.000000
O     0.224903    1.298993   -0.000000    0.051645   -0.026962   -0.000000
O     1.093414   -0.737668   -0.000000    0.231863   -0.062562   -0.000000
H    -2.058274    0.279051   -0.000000    0.709286    0.658553    0.000000
H    -1.410417   -1.144649    0.918891    0.698400    0.465789    0.501420
H    -1.410417   -1.144649   -0.918891    0.698400    0.465789   -0.501420
H     0.715619   -1.628862   -0.000000   -0.902985    0.300644    0.000000
8
* Frequency(15) 1321.4048
C     0.058795    0.114591    0.000000   -0.389500    0.089072    0.000000
C    -1.320121   -0.526848    0.000000   -0.089108   -0.128504   -0.000000
O     0.218953    1.302100   -0.000000    0.051645   -0.026962   -0.000000
O     1.066700   -0.730460   -0.000000    0.231863   -0.062562   -0.000000
H    -2.139995    0.203175   -0.000000    0.709286    0.658553    0.000000
H    -1.490884   -1.198316    0.861119    0.698400    0.465789    0.501420
H    -1.490884   -1.198316   -0.861119    0.698400    0.465789   -0.501420
H     0.819657   -1.663501   -0.000000   -0.902985    0.300644    0.000000
8
* Frequency(15) 1321.4048
C     0.101240    0.104884    0.000000   -0.389500    0.089072    0.000000
C    -1.310410   -0.512845    0.000000   -0.089108   -0.128504   -0.000000
O     0.213325    1.305038   -0.000000    0.051645   -0.026962   -0.000000
O     1.041433   -0.723642   -0.000000    0.231863   -0.062562   -0.000000
H    -2.217289    0.131410   -0.000000    0.709286    0.658553    0.000000
H    -1.566991   -1.249074    0.806478    0.698400    0.465789    0.501420
H    -1.566991   -1.249074   -0.806478    0.698400    0.465789   -0.501420
H     0.918059   -1.696263   -0.000000   -0.902985    0.300644    0.000000
8
* Frequency(15) 1321.4048
C     0.136654    0.096786    0.000000   -0.389500    0.089072    0.000000
C    -1.302309   -0.501161    0.000000   -0.089108   -0.128504   -0.000000
O     0.208630    1.307489   -0.000000    0.051645   -0.026962   -0.000000
O     1.020352   -0.717954   -0.000000    0.231863   -0.062562   -0.000000
H    -2.281778    0.071533   -0.000000    0.709286    0.658553    0.000000
H    -1.630491   -1.291425    0.760888    0.698400    0.465789    0.501420
H    -1.630491   -1.291425   -0.760888    0.698400    0.465789   -0.501420
H     1.000160   -1.723598   -0.000000   -0.902985    0.300644    0.000000
8
* Frequency(15) 1321.4048
C     0.161200    0.091172    0.000000   -0.389500    0.089072    0.000000
C    -1.296693   -0.493063    0.000000   -0.089108   -0.128504   -0.000000
O     0.205375    1.309188   -0.000000    0.051645   -0.026962   -0.000000
O     1.005740   -0.714012   -0.000000    0.231863   -0.062562   -0.000000
H    -2.326475    0.030033   -0.000000    0.709286    0.658553    0.000000
H    -1.674502   -1.320778    0.729290    0.698400    0.465789    0.501420
H    -1.674502   -1.320778   -0.729290    0.698400    0.465789   -0.501420
H     1.057063   -1.742544   -0.000000   -0.902985    0.300644    0.000000
8
* Frequency(15) 1321.4048
C     0.172216    0.088653    0.000000   -0.389500    0.089072    0.000000
C    -1.294173   -0.489428    0.000000   -0.089108   -0.128504   -0.000000
O     0.203914    1.309951   -0.000000    0.051645   -0.026962   -0.000000
O     0.999182   -0.712242   -0.000000    0.231863   -0.062562   -0.000000
H    -2.346537    0.011406   -0.000000    0.709286    0.658553    0.000000
H    -1.694256   -1.333952    0.715107    0.698400    0.465789    0.501420
H    -1.694256   -1.333952   -0.715107    0.698400    0.465789   -0.501420
H     1.082603   -1.751047   -0.000000   -0.902985    0.300644    0.000000
8
* Frequency(15) 1321.4048
C     0.168510    0.089501    0.000000   -0.389500    0.089072    0.000000
C    -1.295021   -0.490651    0.000000   -0.089108   -0.128504   -0.000000
O     0.204406    1.309695   -0.000000    0.051645   -0.026962   -0.000000
O     1.001388   -0.712837   -0.000000    0.231863   -0.062562   -0.000000
H    -2.339788    0.017672   -0.000000    0.709286    0.658553    0.000000
H    -1.687611   -1.329520    0.719878    0.698400    0.465789    0.501420
H    -1.687611   -1.329520   -0.719878    0.698400    0.465789   -0.501420
H     1.074012   -1.748187   -0.000000   -0.902985    0.300644    0.000000
8
* Frequency(15) 1321.4048
C     0.150483    0.093623    0.000000   -0.389500    0.089072    0.000000
C    -1.299145   -0.496598    0.000000   -0.089108   -0.128504   -0.000000
O     0.206796    1.308447   -0.000000    0.051645   -0.026962   -0.000000
O     1.012119   -0.715733   -0.000000    0.231863   -0.062562   -0.000000
H    -2.306961    0.048151   -0.000000    0.709286    0.658553    0.000000
H    -1.655288   -1.307963    0.743085    0.698400    0.465789    0.501420
H    -1.655288   -1.307963   -0.743085    0.698400    0.465789   -0.501420
H     1.032220   -1.734272   -0.000000   -0.902985    0.300644    0.000000
8
* Frequency(15) 1321.4048
C     0.120089    0.100574    0.000000   -0.389500    0.089072    0.000000
C    -1.306098   -0.506626    0.000000   -0.089108   -0.128504   -0.000000
O     0.210826    1.306343   -0.000000    0.051645   -0.026962   -0.000000
O     1.030213   -0.720615   -0.000000    0.231863   -0.062562   -0.000000
H    -2.251613    0.099540   -0.000000    0.709286    0.658553    0.000000
H    -1.600789   -1.271615    0.782213    0.698400    0.465789    0.501420
H    -1.600789   -1.271615   -0.782213    0.698400    0.465789   -0.501420
H     0.961757   -1.710812   -0.000000   -0.902985    0.300644    0.000000
8
* Frequency(15) 1321.4048
C     0.080622    0.109599    0.000000   -0.389500    0.089072    0.000000
C    -1.315127   -0.519647    0.000000   -0.089108   -0.128504   -0.000000
O     0.216059    1.303611   -0.000000    0.051645   -0.026962   -0.000000
O     1.053707   -0.726954   -0.000000    0.231863   -0.062562   -0.000000
H    -2.179741    0.166271   -0.000000    0.709286    0.658553    0.000000
H    -1.530020   -1.224417    0.833021    0.698400    0.465789    0.501420
H    -1.530020   -1.224417   -0.833021    0.698400    0.465789   -0.501420
H     0.870258   -1.680348   -0.000000   -0.902985    0.300644    0.000000
8
* Frequency(15) 1321.4048
C     0.036357    0.119722    0.000000   -0.389500    0.089072    0.000000
C    -1.325254   -0.534251    0.000000   -0.089108   -0.128504   -0.000000
O     0.221928    1.300547   -0.000000    0.051645   -0.026962   -0.000000
O     1.080057   -0.734064   -0.000000    0.231863   -0.062562   -0.000000
H    -2.099135    0.241113   -0.000000    0.709286    0.658553    0.000000
H    -1.450651   -1.171483    0.890005    0.698400    0.465789    0.501420
H    -1.450651   -1.171483   -0.890005    0.698400    0.465789   -0.501420
H     0.767638   -1.646181   -0.000000   -0.902985    0.300644    0.000000
