3
* (null), Energy   -1000.0000000
O     0.000000    0.045838   -0.000000    0.000000    0.000000    0.139318
H     0.000000   -0.552069   -0.754394    0.000000   -0.876286   -1.105630
H     0.000000   -0.552069    0.754394    0.000000    0.876286   -1.105630
3
* Frequency(8) 3967.4179
O     0.000000    0.045838    0.015833    0.000000    0.000000    0.139318
H     0.000000   -0.651654   -0.880043    0.000000   -0.876286   -1.105630
H     0.000000   -0.452484    0.628745    0.000000    0.876286   -1.105630
3
* Frequency(8) 3967.4179
O     0.000000    0.045838    0.029950    0.000000    0.000000    0.139318
H     0.000000   -0.740448   -0.992076    0.000000   -0.876286   -1.105630
H     0.000000   -0.363690    0.516711    0.000000    0.876286   -1.105630
3
* Frequency(8) 3967.4179
O     0.000000    0.045838    0.040821    0.000000    0.000000    0.139318
H     0.000000   -0.808828   -1.078353    0.000000   -0.876286   -1.105630
H     0.000000   -0.295310    0.430435    0.000000    0.876286   -1.105630
3
* Frequency(8) 3967.4179
O     0.000000    0.045838    0.047269    0.000000    0.000000    0.139318
H     0.000000   -0.849384   -1.129523    0.000000   -0.876286   -1.105630
H     0.000000   -0.254754    0.379264    0.000000    0.876286   -1.105630
3
* Frequency(8) 3967.4179
O     0.000000    0.045838    0.048595    0.000000    0.000000    0.139318
H     0.000000   -0.857721   -1.140043    0.000000   -0.876286   -1.105630
H     0.000000   -0.246417    0.368745    0.000000    0.876286   -1.105630
3
* Frequency(8) 3967.4179
O     0.000000    0.045838    0.044654    0.000000    0.000000    0.139318
H     0.000000   -0.832937   -1.108771    0.000000   -0.876286   -1.105630
H     0.000000   -0.271201    0.400016    0.000000    0.876286   -1.105630
3
* Frequency(8) 3967.4179
O     0.000000    0.045838    0.035875    0.000000    0.000000    0.139318
H     0.000000   -0.777716   -1.039097    0.000000   -0.876286   -1.105630
H     0.000000   -0.326423    0.469690    0.000000    0.876286   -1.105630
3
* Frequency(8) 3967.4179
O     0.000000    0.045838    0.023208    0.000000    0.000000    0.139318
H     0.000000   -0.698042   -0.938571    0.000000   -0.876286   -1.105630
H     0.000000   -0.406096    0.570216    0.000000    0.876286   -1.105630
3
* Frequency(8) 3967.4179
O     0.000000    0.045838    0.008026    0.000000    0.000000    0.139318
H     0.000000   -0.602550   -0.818087    0.000000   -0.876286   -1.105630
H     0.000000   -0.501588    0.690700    0.000000    0.876286   -1.105630
3
* Frequency(8) 3967.4179
O     0.000000    0.045838   -0.008026    0.000000    0.000000    0.139318
H     0.000000   -0.501588   -0.690700    0.000000   -0.876286   -1.105630
H     0.000000   -0.602550    0.818087    0.000000    0.876286   -1.105630
3
* Frequency(8) 3967.4179
O     0.000000    0.045838   -0.023208    0.000000    0.000000    0.139318
H     0.000000   -0.406096   -0.570216    0.000000   -0.876286   -1.105630
H     0.000000   -0.698042    0.938571    0.000000    0.876286   -1.105630
3
* Frequency(8) 3967.4179
O     0.000000    0.045838   -0.035875    0.000000    0.000000    0.139318
H     0.000000   -0.326423   -0.469690    0.000000   -0.876286   -1.105630
H     0.000000   -0.777716    1.039097    0.000000    0.876286   -1.105630
3
* Frequency(8) 3967.4179
O     0.000000    0.045838   -0.044654    0.000000    0.000000    0.139318
H     0.000000   -0.271201   -0.400016    0.000000   -0.876286   -1.105630
H     0.000000   -0.832937    1.108771    0.000000    0.876286   -1.105630
3
* Frequency(8) 3967.4179
O     0.000000    0.045838   -0.048595    0.000000    0.000000    0.139318
H     0.000000   -0.246417   -0.368745    0.000000   -0.876286   -1.105630
H     0.000000   -0.857721    1.140043    0.000000    0.876286   -1.105630
3
* Frequency(8) 3967.4179
O     0.000000    0.045838   -0.047269    0.000000    0.000000    0.139318
H     0.000000   -0.254754   -0.379264    0.000000   -0.876286   -1.105630
H     0.000000   -0.849384    1.129523    0.000000    0.876286   -1.105630
3
* Frequency(8) 3967.4179
O     0.000000    0.045838   -0.040821    0.000000    0.000000    0.139318
H     0.000000   -0.295310   -0.430435    0.000000   -0.876286   -1.105630
H     0.000000   -0.808828    1.078353    0.000000    0.876286   -1.105630
3
* Frequency(8) 3967.4179
O     0.000000    0.045838   -0.029950    0.000000    0.000000    0.139318
H     0.000000   -0.363690   -0.516711    0.000000   -0.876286   -1.105630
H     0.000000   -0.740448    0.992076    0.000000    0.876286   -1.105630
3
* Frequency(8) 3967.4179
O     0.000000    0.045838   -0.015833    0.000000    0.000000    0.139318
H     0.000000   -0.452484   -0.628745    0.000000   -0.876286   -1.105630
H     0.000000   -0.651654    0.880043    0.000000    0.876286   -1.105630
3
* Frequency(8) 3967.4179
O     0.000000    0.045838   -0.000000    0.000000    0.000000    0.139318
H     0.000000   -0.552069   -0.754394    0.000000   -0.876286   -1.105630
H     0.000000   -0.552069    0.754394    0.000000    0.876286   -1.105630
