8
* (null), Energy   -1000.0000000
C     0.036357    0.119722    0.000000    0.003999    0.003777    0.000000
C    -1.325254   -0.534251    0.000000    0.000495   -0.000737   -0.000000
O     0.221928    1.300547   -0.000000   -0.000580   -0.002115    0.000000
O     1.080057   -0.734064   -0.000000    0.036320    0.119382    0.000000
H    -2.099135    0.241113   -0.000000    0.005872    0.001087    0.000000
H    -1.450651   -1.171483    0.890005    0.000377   -0.001844   -0.002161
H    -1.450651   -1.171483   -0.890005    0.000377   -0.001844    0.002161
H     0.767638   -1.646181   -0.000000   -0.627443   -1.894903   -0.000000
8
* Frequency(23) 3872.2255
C     0.036811    0.120151    0.000000    0.003999    0.003777    0.000000
C    -1.325198   -0.534335    0.000000    0.000495   -0.000737   -0.000000
O     0.221862    1.300306   -0.000000   -0.000580   -0.002115    0.000000
O     1.084185   -0.720497   -0.000000    0.036320    0.119382    0.000000
H    -2.098467    0.241236   -0.000000    0.005872    0.001087    0.000000
H    -1.450608   -1.171692    0.889760    0.000377   -0.001844   -0.002161
H    -1.450608   -1.171692   -0.889759    0.000377   -0.001844    0.002161
H     0.696332   -1.861527   -0.000000   -0.627443   -1.894903   -0.000000
8
* Frequency(23) 3872.2255
C     0.037217    0.120534    0.000000    0.003999    0.003777    0.000000
C    -1.325148   -0.534409    0.000000    0.000495   -0.000737   -0.000000
O     0.221803    1.300092   -0.000000   -0.000580   -0.002115    0.000000
O     1.087865   -0.708400   -0.000000    0.036320    0.119382    0.000000
H    -2.097872    0.241346   -0.000000    0.005872    0.001087    0.000000
H    -1.450570   -1.171879    0.889541    0.000377   -0.001844   -0.002161
H    -1.450570   -1.171879   -0.889541    0.000377   -0.001844    0.002161
H     0.632754   -2.053537   -0.000000   -0.627443   -1.894903   -0.000000
8
* Frequency(23) 3872.2255
C     0.037529    0.120829    0.000000    0.003999    0.003777    0.000000
C    -1.325109   -0.534467    0.000000    0.000495   -0.000737   -0.000000
O     0.221758    1.299927   -0.000000   -0.000580   -0.002115    0.000000
O     1.090699   -0.699084   -0.000000    0.036320    0.119382    0.000000
H    -2.097414    0.241431   -0.000000    0.005872    0.001087    0.000000
H    -1.450540   -1.172023    0.889372    0.000377   -0.001844   -0.002161
H    -1.450540   -1.172023   -0.889372    0.000377   -0.001844    0.002161
H     0.583792   -2.201403   -0.000000   -0.627443   -1.894903   -0.000000
8
* Frequency(23) 3872.2255
C     0.037714    0.121004    0.000000    0.003999    0.003777    0.000000
C    -1.325086   -0.534501    0.000000    0.000495   -0.000737   -0.000000
O     0.221731    1.299829   -0.000000   -0.000580   -0.002115    0.000000
O     1.092380   -0.693559   -0.000000    0.036320    0.119382    0.000000
H    -2.097142    0.241482   -0.000000    0.005872    0.001087    0.000000
H    -1.450523   -1.172108    0.889272    0.000377   -0.001844   -0.002161
H    -1.450523   -1.172108   -0.889272    0.000377   -0.001844    0.002161
H     0.554753   -2.289103   -0.000000   -0.627443   -1.894903   -0.000000
8
* Frequency(23) 3872.2255
C     0.037752    0.121039    0.000000    0.003999    0.003777    0.000000
C    -1.325081   -0.534508    0.000000    0.000495   -0.000737   -0.000000
O     0.221726    1.299809   -0.000000   -0.000580   -0.002115    0.000000
O     1.092726   -0.692423   -0.000000    0.036320    0.119382    0.000000
H    -2.097086    0.241492   -0.000000    0.005872    0.001087    0.000000
H    -1.450519   -1.172126    0.889251    0.000377   -0.001844   -0.002161
H    -1.450519   -1.172126   -0.889251    0.000377   -0.001844    0.002161
H     0.548783   -2.307132   -0.000000   -0.627443   -1.894903   -0.000000
8
* Frequency(23) 3872.2255
C     0.037639    0.120933    0.000000    0.003999    0.003777    0.000000
C    -1.325095   -0.534487    0.000000    0.000495   -0.000737   -0.000000
O     0.221742    1.299869   -0.000000   -0.000580   -0.002115    0.000000
O     1.091698   -0.695799   -0.000000    0.036320    0.119382    0.000000
H    -2.097252    0.241461   -0.000000    0.005872    0.001087    0.000000
H    -1.450530   -1.172074    0.889313    0.000377   -0.001844   -0.002161
H    -1.450530   -1.172074   -0.889312    0.000377   -0.001844    0.002161
H     0.566530   -2.253537   -0.000000   -0.627443   -1.894903   -0.000000
8
* Frequency(23) 3872.2255
C     0.037387    0.120695    0.000000    0.003999    0.003777    0.000000
C    -1.325127   -0.534441    0.000000    0.000495   -0.000737   -0.000000
O     0.221779    1.300002   -0.000000   -0.000580   -0.002115    0.000000
O     1.089410   -0.703323   -0.000000    0.036320    0.119382    0.000000
H    -2.097622    0.241393   -0.000000    0.005872    0.001087    0.000000
H    -1.450554   -1.171958    0.889449    0.000377   -0.001844   -0.002161
H    -1.450554   -1.171958   -0.889449    0.000377   -0.001844    0.002161
H     0.606069   -2.134125   -0.000000   -0.627443   -1.894903   -0.000000
8
* Frequency(23) 3872.2255
C     0.037023    0.120351    0.000000    0.003999    0.003777    0.000000
C    -1.325172   -0.534374    0.000000    0.000495   -0.000737   -0.000000
O     0.221832    1.300194   -0.000000   -0.000580   -0.002115    0.000000
O     1.086107   -0.714177   -0.000000    0.036320    0.119382    0.000000
H    -2.098156    0.241294   -0.000000    0.005872    0.001087    0.000000
H    -1.450588   -1.171790    0.889645    0.000377   -0.001844   -0.002161
H    -1.450588   -1.171790   -0.889645    0.000377   -0.001844    0.002161
H     0.663118   -1.961837   -0.000000   -0.627443   -1.894903   -0.000000
8
* Frequency(23) 3872.2255
C     0.036587    0.119940    0.000000    0.003999    0.003777    0.000000
C    -1.325226   -0.534293    0.000000    0.000495   -0.000737   -0.000000
O     0.221895    1.300425   -0.000000   -0.000580   -0.002115    0.000000
O     1.082149   -0.727187   -0.000000    0.036320    0.119382    0.000000
H    -2.098796    0.241175   -0.000000    0.005872    0.001087    0.000000
H    -1.450629   -1.171589    0.889881    0.000377   -0.001844   -0.002161
H    -1.450629   -1.171589   -0.889881    0.000377   -0.001844    0.002161
H     0.731492   -1.755343   -0.000000   -0.627443   -1.894903   -0.000000
8
* Frequency(23) 3872.2255
C     0.036127    0.119504    0.000000    0.003999    0.003777    0.000000
C    -1.325283   -0.534209    0.000000    0.000495   -0.000737   -0.000000
O     0.221962    1.300668   -0.000000   -0.000580   -0.002115    0.000000
O     1.077965   -0.740941   -0.000000    0.036320    0.119382    0.000000
H    -2.099473    0.241050   -0.000000    0.005872    0.001087    0.000000
H    -1.450673   -1.171376    0.890130    0.000377   -0.001844   -0.002161
H    -1.450672   -1.171376   -0.890129    0.000377   -0.001844    0.002161
H     0.803784   -1.537019   -0.000000   -0.627443   -1.894903   -0.000000
8
* Frequency(23) 3872.2255
C     0.035691    0.119093    0.000000    0.003999    0.003777    0.000000
C    -1.325337   -0.534128    0.000000    0.000495   -0.000737   -0.000000
O     0.222025    1.300899   -0.000000   -0.000580   -0.002115    0.000000
O     1.074007   -0.753951   -0.000000    0.036320    0.119382    0.000000
H    -2.100113    0.240931   -0.000000    0.005872    0.001087    0.000000
H    -1.450714   -1.171175    0.890365    0.000377   -0.001844   -0.002161
H    -1.450714   -1.171175   -0.890365    0.000377   -0.001844    0.002161
H     0.872159   -1.330525   -0.000000   -0.627443   -1.894903   -0.000000
8
* Frequency(23) 3872.2255
C     0.035327    0.118749    0.000000    0.003999    0.003777    0.000000
C    -1.325382   -0.534061    0.000000    0.000495   -0.000737   -0.000000
O     0.222078    1.301091   -0.000000   -0.000580   -0.002115    0.000000
O     1.070705   -0.764805   -0.000000    0.036320    0.119382    0.000000
H    -2.100647    0.240833   -0.000000    0.005872    0.001087    0.000000
H    -1.450748   -1.171008    0.890561    0.000377   -0.001844   -0.002161
H    -1.450748   -1.171008   -0.890561    0.000377   -0.001844    0.002161
H     0.929207   -1.158237   -0.000000   -0.627443   -1.894903   -0.000000
8
* Frequency(23) 3872.2255
C     0.035075    0.118511    0.000000    0.003999    0.003777    0.000000
C    -1.325413   -0.534015    0.000000    0.000495   -0.000737   -0.000000
O     0.222114    1.301224   -0.000000   -0.000580   -0.002115    0.000000
O     1.068416   -0.772329   -0.000000    0.036320    0.119382    0.000000
H    -2.101017    0.240764   -0.000000    0.005872    0.001087    0.000000
H    -1.450772   -1.170891    0.890698    0.000377   -0.001844   -0.002161
H    -1.450772   -1.170891   -0.890698    0.000377   -0.001844    0.002161
H     0.968747   -1.038826   -0.000000   -0.627443   -1.894903   -0.000000
8
* Frequency(23) 3872.2255
C     0.034962    0.118405    0.000000    0.003999    0.003777    0.000000
C    -1.325427   -0.533994    0.000000    0.000495   -0.000737   -0.000000
O     0.222131    1.301284   -0.000000   -0.000580   -0.002115    0.000000
O     1.067389   -0.775705   -0.000000    0.036320    0.119382    0.000000
H    -2.101183    0.240733   -0.000000    0.005872    0.001087    0.000000
H    -1.450783   -1.170839    0.890759    0.000377   -0.001844   -0.002161
H    -1.450782   -1.170839   -0.890759    0.000377   -0.001844    0.002161
H     0.986493   -0.985231   -0.000000   -0.627443   -1.894903   -0.000000
8
* Frequency(23) 3872.2255
C     0.035000    0.118441    0.000000    0.003999    0.003777    0.000000
C    -1.325422   -0.534001    0.000000    0.000495   -0.000737   -0.000000
O     0.222125    1.301264   -0.000000   -0.000580   -0.002115    0.000000
O     1.067734   -0.774569   -0.000000    0.036320    0.119382    0.000000
H    -2.101127    0.240744   -0.000000    0.005872    0.001087    0.000000
H    -1.450779   -1.170857    0.890738    0.000377   -0.001844   -0.002161
H    -1.450779   -1.170857   -0.890738    0.000377   -0.001844    0.002161
H     0.980523   -1.003260   -0.000000   -0.627443   -1.894903   -0.000000
8
* Frequency(23) 3872.2255
C     0.035185    0.118615    0.000000    0.003999    0.003777    0.000000
C    -1.325399   -0.534035    0.000000    0.000495   -0.000737   -0.000000
O     0.222098    1.301166   -0.000000   -0.000580   -0.002115    0.000000
O     1.069415   -0.769044   -0.000000    0.036320    0.119382    0.000000
H    -2.100855    0.240794   -0.000000    0.005872    0.001087    0.000000
H    -1.450762   -1.170942    0.890638    0.000377   -0.001844   -0.002161
H    -1.450761   -1.170942   -0.890638    0.000377   -0.001844    0.002161
H     0.951484   -1.090959   -0.000000   -0.627443   -1.894903   -0.000000
8
* Frequency(23) 3872.2255
C     0.035497    0.118910    0.000000    0.003999    0.003777    0.000000
C    -1.325361   -0.534093    0.000000    0.000495   -0.000737   -0.000000
O     0.222053    1.301001   -0.000000   -0.000580   -0.002115    0.000000
O     1.072249   -0.759728   -0.000000    0.036320    0.119382    0.000000
H    -2.100397    0.240879   -0.000000    0.005872    0.001087    0.000000
H    -1.450732   -1.171086    0.890470    0.000377   -0.001844   -0.002161
H    -1.450732   -1.171086   -0.890469    0.000377   -0.001844    0.002161
H     0.902522   -1.238826   -0.000000   -0.627443   -1.894903   -0.000000
8
* Frequency(23) 3872.2255
C     0.035902    0.119293    0.000000    0.003999    0.003777    0.000000
C    -1.325310   -0.534167    0.000000    0.000495   -0.000737   -0.000000
O     0.221994    1.300787   -0.000000   -0.000580   -0.002115    0.000000
O     1.075930   -0.747631   -0.000000    0.036320    0.119382    0.000000
H    -2.099802    0.240989   -0.000000    0.005872    0.001087    0.000000
H    -1.450694   -1.171273    0.890251    0.000377   -0.001844   -0.002161
H    -1.450694   -1.171273   -0.890251    0.000377   -0.001844    0.002161
H     0.838944   -1.430835   -0.000000   -0.627443   -1.894903   -0.000000
8
* Frequency(23) 3872.2255
C     0.036357    0.119722    0.000000    0.003999    0.003777    0.000000
C    -1.325254   -0.534251    0.000000    0.000495   -0.000737   -0.000000
O     0.221928    1.300547   -0.000000   -0.000580   -0.002115    0.000000
O     1.080057   -0.734064   -0.000000    0.036320    0.119382    0.000000
H    -2.099135    0.241113   -0.000000    0.005872    0.001087    0.000000
H    -1.450651   -1.171483    0.890005    0.000377   -0.001844   -0.002161
H    -1.450651   -1.171483   -0.890005    0.000377   -0.001844    0.002161
H     0.767638   -1.646181   -0.000000   -0.627443   -1.894903   -0.000000
